*SPEF "IEEE 1481-1998"
*DESIGN "multiplexor"
*DATE "Wed Sep 24 20:06:57 2025"
*VENDOR "Cadence Design Systems, Inc."
*PROGRAM "Innovus"
*VERSION "21.17-s075_1"
*DESIGN_FLOW "PIN_CAP NONE" "NAME_SCOPE LOCAL"
*DIVIDER /
*DELIMITER :
*BUS_DELIMITER []
*T_UNIT 1 NS
*C_UNIT 1 PF
*R_UNIT 1 OHM
*L_UNIT 1 HENRY

// MMMC spef file for corner 'rccorners'

*NAME_MAP

*1 FE_OFN4_mux_out_0
*2 FE_OFN3_mux_out_1
*3 FE_OFN2_mux_out_2
*4 FE_OFN1_mux_out_3
*5 FE_OFN0_mux_out_4
*6 in0[4]
*7 in0[3]
*8 in0[2]
*9 in0[1]
*10 in0[0]
*11 in1[4]
*12 in1[3]
*13 in1[2]
*14 in1[1]
*15 in1[0]
*16 sel
*17 mux_out[4]
*18 mux_out[3]
*19 mux_out[2]
*20 mux_out[1]
*21 mux_out[0]
*22 FE_OFC4_mux_out_0
*23 FE_OFC3_mux_out_1
*24 FE_OFC2_mux_out_2
*25 FE_OFC1_mux_out_3
*26 FE_OFC0_mux_out_4
*27 g136__2398
*28 g140__5107
*29 g137__6260
*30 g138__4319
*31 g139__8428


*PORTS

*6 I *C 4 12.16
*7 I *C 0 8.5
*8 I *C 0 7
*9 I *C 0 5.5
*10 I *C 0 4
*11 I *C 7 0
*12 I *C 5.5 0
*13 I *C 4 0
*14 I *C 7.5 12.16
*15 I *C 6 12.16
*16 I *C 10 0
*17 O *C 13.4 10
*18 O *C 13.4 8.5
*19 O *C 13.4 7
*20 O *C 13.4 5.5
*21 O *C 13.4 4


*D_NET *1 0.000462943

*CONN
*I *30:Y O *C 6.34 3.8 *L 0 *D MX2X1
*I *22:A I *C 10.5 3.515 *L 0.000787 *D CLKBUFX8

*CAP
1 *1:2 0.000110224
2 *1:3 0.000121247
3 *30:Y 0.000110224
4 *1:5 0.000121247

*RES
1 *1:6 *22:A 8
2 *1:6 *1:7 1.07147
3 *1:5 *1:6 8
4 *1:3 *1:5 7.24024
5 *1:2 *30:Y 6.58204
6 *1:1 *1:3 8
7 *1:1 *1:2 8
8 *1:0 *1:1 1.07147
*END

*D_NET *2 0.000286584

*CONN
*I *29:Y O *C 7.94 4.94 *L 0 *D MX2X1
*I *23:A I *C 10.5 5.225 *L 0.000787 *D CLKBUFX8

*CAP
1 *2:2 2.20449e-05
2 *2:3 0.000121247
3 *29:Y 2.20449e-05
4 *2:5 0.000121247

*RES
1 *2:6 *23:A 8
2 *2:6 *2:7 1.07147
3 *2:5 *2:6 8
4 *2:3 *2:5 7.24024
5 *2:2 *29:Y 1.31641
6 *2:1 *2:3 8
7 *2:1 *2:2 8
8 *2:0 *2:1 1.07147
*END

*D_NET *3 0.000617257

*CONN
*I *28:Y O *C 4.94 7.22 *L 0 *D MX2X1
*I *24:A I *C 10.5 6.935 *L 0.000787 *D CLKBUFX8

*CAP
1 *3:2 4.40898e-05
2 *3:3 0.000264539
3 *28:Y 4.40898e-05
4 *3:5 0.000264539

*RES
1 *3:6 *24:A 8
2 *3:6 *3:7 1.07147
3 *3:5 *3:6 8
4 *3:3 *3:5 15.7969
5 *3:2 *28:Y 2.63282
6 *3:1 *3:3 8
7 *3:1 *3:2 8
8 *3:0 *3:1 1.07147
*END

*D_NET *4 0.000548596

*CONN
*I *31:Y O *C 5.74 8.36 *L 0 *D MX2X1
*I *25:A I *C 10.5 8.645 *L 0.000787 *D CLKBUFX8

*CAP
1 *4:2 2.20449e-05
2 *4:3 0.000242494
3 *31:Y 2.20449e-05
4 *4:5 0.000242494
5 *4:6 9.75941e-06
6 *4:7 9.75941e-06

*RES
1 *4:7 *25:A 8
2 *4:6 *4:7 0.616758
3 *4:5 *4:6 8
4 *4:3 *4:5 14.4805
5 *4:2 *31:Y 1.31641
6 *4:1 *4:3 8
7 *4:1 *4:2 8
8 *4:0 *4:1 1.07147
*END

*D_NET *5 0.000246856

*CONN
*I *27:Y O *C 7.34 7.22 *L 0 *D MX2X1
*I *26:A I *C 8.3 8.645 *L 0.000787 *D CLKBUFX8

*CAP
1 *27:Y 5.51122e-05
2 *5:1 5.51122e-05
3 *5:2 6.83159e-05
4 *5:3 6.83159e-05

*RES
1 *5:3 *26:A 8
2 *5:2 *5:3 4.3173
3 *5:1 *5:2 8
4 *27:Y *5:1 3.29102
*END

*D_NET *6 0.000821158

*CONN
*P *6 I *C 4 12.16 *L 0
*I *27:A I *C 6.3 6.935 *L 0.00021 *D MX2X1

*CAP
1 *6 9.36908e-05
2 *6:1 0.00011298
3 *6:2 5.23566e-05
4 *6:3 3.30673e-05
5 *6:4 4.87971e-05
6 *6:5 5.90701e-05
7 *6:6 8.83484e-05
8 *6:7 8.83484e-05
9 *6:8 0.000127386
10 *6:9 0.000117113

*RES
1 *6:9 *27:A 8
2 *6:8 *6:9 7.40109
3 *6:7 *6:8 0.649219
4 *6:6 *6:7 4.93406
5 *6:5 *6:6 0.649219
6 *6:4 *6:5 3.08379
7 *6:3 *6:4 8
8 *6:2 *6:3 1.97461
9 *6:1 *6:2 1.15186
10 *6 *6:1 5.59473
*END

*D_NET *7 0.000520259

*CONN
*I *31:A I *C 4.7 8.645 *L 0.00021 *D MX2X1
*P *7 I *C 0 8.5 *L 0

*CAP
1 *7:2 8.81796e-05
2 *7:4 9.61708e-05
3 *7:5 0.00017195
4 *7 0.000163959

*RES
1 *7:5 *7 9.79078
2 *7:4 *7:5 0.477198
3 *7:2 *7:4 5.26563
4 *7:1 *31:A 8
5 *7:1 *7:2 8
6 *7:0 *7:1 1.07147
*END

*D_NET *8 0.000423262

*CONN
*I *28:A I *C 3.9 6.935 *L 0.00021 *D MX2X1
*P *8 I *C 0 7 *L 0

*CAP
1 *8:2 7.71571e-05
2 *8:4 8.07394e-05
3 *8:5 0.000134474
4 *8 0.000130892

*RES
1 *8:5 *8 7.81617
2 *8:4 *8:5 0.213916
3 *8:2 *8:4 4.60743
4 *8:1 *28:A 8
5 *8:1 *8:2 8
6 *8:0 *8:1 1.07147
*END

*D_NET *9 0.000775659

*CONN
*P *9 I *C 0 5.5 *L 0
*I *29:A I *C 6.9 5.225 *L 0.00021 *D MX2X1

*CAP
1 *9 0.000373385
2 *9:1 0.00037807
3 *9:2 4.68454e-06
4 *9:3 9.75941e-06
5 *9:4 9.75941e-06

*RES
1 *9:4 *29:A 8
2 *9:3 *9:4 0.616758
3 *9:2 *9:3 8
4 *9:1 *9:2 0.279737
5 *9 *9:1 22.2967
*END

*D_NET *10 0.000621023

*CONN
*P *10 I *C 0 4 *L 0
*I *30:A I *C 5.3 3.515 *L 0.00021 *D MX2X1

*CAP
1 *10 0.000274183
2 *10:1 0.00027997
3 *10:2 1.68092e-05
4 *10:3 1.10224e-05
5 *10:4 1.95188e-05
6 *10:5 1.95188e-05

*RES
1 *10:5 *30:A 8
2 *10:4 *10:5 1.23352
3 *10:3 *10:4 8
4 *10:2 *10:3 0.658204
5 *10:1 *10:2 0.345557
6 *10 *10:1 16.3728
*END

*D_NET *11 0.000754793

*CONN
*P *11 I *C 7 0 *L 0
*I *27:B I *C 7.165 6.87 *L 0.00021 *D MX2X1

*CAP
1 *11 5.51122e-06
2 *11:1 5.51122e-06
3 *11:2 0.000243985
4 *11:3 0.000254258
5 *11:4 5.90701e-05
6 *11:5 5.90701e-05
7 *11:6 6.88296e-05
8 *11:7 5.85565e-05

*RES
1 *11:7 *27:B 8
2 *11:6 *11:7 3.70055
3 *11:5 *11:6 0.649219
4 *11:4 *11:5 3.08379
5 *11:3 *11:4 0.649219
6 *11:2 *11:3 15.4189
7 *11:1 *11:2 8
8 *11 *11:1 0.329102
*END

*D_NET *12 0.000919055

*CONN
*P *12 I *C 5.5 0 *L 0
*I *31:B I *C 5.565 8.71 *L 0.00021 *D MX2X1

*CAP
1 *12 1.10224e-05
2 *12:1 1.98404e-05
3 *12:2 8.81796e-06
4 *12:3 0.000204948
5 *12:4 0.000215221
6 *12:5 0.00023474
7 *12:6 0.000224467

*RES
1 *12:6 *31:B 8
2 *12:5 *12:6 14.1854
3 *12:4 *12:5 0.649219
4 *12:3 *12:4 12.9519
5 *12:2 *12:3 8
6 *12:1 *12:2 0.526563
7 *12 *12:1 0.658204
*END

*D_NET *13 0.000820543

*CONN
*P *13 I *C 4 0 *L 0
*I *28:B I *C 4.765 6.87 *L 0.00021 *D MX2X1

*CAP
1 *13 4.9601e-05
2 *13:1 5.8419e-05
3 *13:2 8.81796e-06
4 *13:3 0.000224467
5 *13:4 0.00023474
6 *13:5 0.000127386
7 *13:6 0.000117113

*RES
1 *13:6 *28:B 8
2 *13:5 *13:6 7.40109
3 *13:4 *13:5 0.649219
4 *13:3 *13:4 14.1854
5 *13:2 *13:3 8
6 *13:1 *13:2 0.526563
7 *13 *13:1 2.96192
*END

*D_NET *14 0.00072284

*CONN
*P *14 I *C 7.5 12.16 *L 0
*I *29:B I *C 7.765 5.29 *L 0.00021 *D MX2X1

*CAP
1 *14 1.10224e-05
2 *14:1 1.98404e-05
3 *14:2 8.81796e-06
4 *14:3 0.000341579
5 *14:4 0.000341579

*RES
1 *14:4 *29:B 8
2 *14:3 *14:4 21.5865
3 *14:2 *14:3 8
4 *14:1 *14:2 0.526563
5 *14 *14:1 0.658204
*END

*D_NET *15 0.00101526

*CONN
*P *15 I *C 6 12.16 *L 0
*I *30:B I *C 6.165 3.45 *L 0.00021 *D MX2X1

*CAP
1 *15 3.85786e-05
2 *15:1 4.73965e-05
3 *15:2 8.81796e-06
4 *15:3 0.000283023
5 *15:4 0.000303569
6 *15:5 0.000147419
7 *15:6 0.000137145
8 *15:7 2.97919e-05
9 *15:8 1.95188e-05

*RES
1 *15:8 *30:B 8
2 *15:7 *15:8 1.23352
3 *15:6 *15:7 0.649219
4 *15:5 *15:6 8.01785
5 *15:4 *15:5 1.29844
6 *15:3 *15:4 17.886
7 *15:2 *15:3 8
8 *15:1 *15:2 0.526563
9 *15 *15:1 2.30371
*END

*D_NET *16 0.00260127

*CONN
*I *30:S0 I *C 5.58 3.175 *L 0.000419 *D MX2X1
*I *28:S0 I *C 4.18 6.595 *L 0.000419 *D MX2X1
*I *31:S0 I *C 4.98 8.985 *L 0.000419 *D MX2X1
*I *27:S0 I *C 6.58 6.595 *L 0.000419 *D MX2X1
*P *16 I *C 10 0 *L 0
*I *29:S0 I *C 7.18 5.565 *L 0.000419 *D MX2X1

*CAP
1 *16:2 7.71571e-05
2 *16:4 7.71571e-05
3 *16:5 0.000224467
4 *16:6 0.000175669
5 *16:7 0.000136632
6 *16:8 0.000117113
7 *16:9 4.40898e-05
8 *16:10 2.20449e-05
9 *16:11 0.000117113
10 *16:13 5.45611e-05
11 *16:14 3.25162e-05
12 *16:15 0.000128927
13 *16:16 0.000132269
14 *16:17 0.000109673
15 *16:18 8.76284e-05
16 *16:19 5.08517e-05
17 *16:20 0.000132269
18 *16:21 0.000109673
19 *16:22 8.76284e-05
20 *16:23 9.75941e-06
21 *16:24 2.92782e-05
22 *16:25 3.25162e-05
23 *16:26 9.86509e-05
24 *16:28 2.92782e-05
25 *16:29 2.20449e-05
26 *16:30 0.00011794
27 *16:32 1.95188e-05
28 *16:33 0.000167541
29 *16:34 1.95188e-05
30 *16 0.000137781

*RES
1 *16:34 *29:S0 8
2 *16:33 *16 8.22755
3 *16:32 *16:34 1.23352
4 *16:30 *16:33 1.77715
5 *16:29 *16:32 8
6 *16:28 *27:S0 8
7 *16:26 *16:30 5.26563
8 *16:25 *16:29 1.31641
9 *16:24 *16:28 1.85027
10 *16:23 *31:S0 8
11 *16:22 *16:26 0.625294
12 *16:21 *16:25 0.625294
13 *16:20 *16:24 8
14 *16:19 *16:23 0.616758
15 *16:18 *16:22 4.60743
16 *16:17 *16:21 5.92383
17 *16:16 *16:20 7.89845
18 *16:15 *16:19 2.59688
19 *16:14 *16:18 0.625294
20 *16:13 *16:17 0.625294
21 *16:11 *16:16 8
22 *16:11 *16:15 5.55082
23 *16:10 *16:14 1.31641
24 *16:9 *16:13 2.63282
25 *16:8 *28:S0 8
26 *16:8 *16:11 1.85027
27 *16:7 *16:10 8
28 *16:6 *16:9 8
29 *16:6 *16:8 5.55082
30 *16:5 *16:7 8.63461
31 *16:5 *16:6 5.55082
32 *16:4 *16:5 8
33 *16:2 *16:4 4.60743
34 *16:1 *30:S0 8
35 *16:1 *16:2 8
36 *16:0 *16:1 1.07147
*END

*D_NET *17 0.000803394

*CONN
*I *26:Y O *C 7.715 8.495 *L 0 *D CLKBUFX8
*P *17 O *C 13.4 10 *L 0.05

*CAP
1 *17:1 3.90377e-05
2 *17:2 3.90377e-05
3 *17:3 0.000198404
4 *17:4 0.000208875
5 *17:5 7.6606e-05
6 *17:6 7.6606e-05
7 *17:7 7.6606e-05
8 *17:8 6.61347e-05
9 *17:9 1.10435e-05
10 *17 1.10435e-05

*RES
1 *17:9 *17 0.69791
2 *17:8 *17:9 8
3 *17:7 *17:8 3.94922
4 *17:6 *17:7 0.625294
5 *17:5 *17:6 3.94922
6 *17:4 *17:5 0.625294
7 *17:3 *17:4 11.8477
8 *17:2 *17:3 8
9 *17:1 *17:2 2.46703
10 *26:Y *17:1 8
*END

*D_NET *18 0.000379386

*CONN
*I *25:Y O *C 9.915 8.495 *L 0 *D CLKBUFX8
*P *18 O *C 13.4 8.5 *L 0.05

*CAP
1 *18:3 0.000187382
2 *18:4 0.000187382
3 *18:5 2.31144e-06
4 *18 2.31144e-06

*RES
1 *18:5 *18 0.146074
2 *18:4 *18:5 8
3 *18:3 *18:4 11.1895
4 *18:1 *18:3 8
5 *18:1 *25:Y 8
6 *18:0 *18:1 1.07147
*END

*D_NET *19 0.000408547

*CONN
*I *24:Y O *C 9.915 7.085 *L 0 *D CLKBUFX8
*P *19 O *C 13.4 7 *L 0.05

*CAP
1 *19:3 0.000143292
2 *19:4 0.000153763
3 *19:5 5.45611e-05
4 *19:6 4.40898e-05
5 *19:7 6.42067e-06
6 *19 6.42067e-06

*RES
1 *19:7 *19 0.405762
2 *19:6 *19:7 8
3 *19:5 *19:6 2.63282
4 *19:4 *19:5 0.625294
5 *19:3 *19:4 8.55665
6 *19:1 *19:3 8
7 *19:1 *24:Y 8
8 *19:0 *19:1 1.07147
*END

*D_NET *20 0.00038555

*CONN
*I *23:Y O *C 9.915 5.075 *L 0 *D CLKBUFX8
*P *20 O *C 13.4 5.5 *L 0.05

*CAP
1 *20:3 0.000187382
2 *20:4 0.000187382
3 *20:5 5.39336e-06
4 *20 5.39336e-06

*RES
1 *20:5 *20 0.34084
2 *20:4 *20:5 8
3 *20:3 *20:4 11.1895
4 *20:1 *20:3 8
5 *20:1 *23:Y 8
6 *20:0 *20:1 1.07147
*END

*D_NET *21 0.00038555

*CONN
*I *22:Y O *C 9.915 3.665 *L 0 *D CLKBUFX8
*P *21 O *C 13.4 4 *L 0.05

*CAP
1 *21:3 0.000187382
2 *21:4 0.000187382
3 *21:5 5.39336e-06
4 *21 5.39336e-06

*RES
1 *21:5 *21 0.34084
2 *21:4 *21:5 8
3 *21:3 *21:4 11.1895
4 *21:1 *21:3 8
5 *21:1 *22:Y 8
6 *21:0 *21:1 1.07147
*END

